!- Darwin Line endings 

Version,
    22.2;                     !- Version Identifier

SimulationControl,
    No,                       !- Do Zone Sizing Calculation
    No,                       !- Do System Sizing Calculation
    No,                       !- Do Plant Sizing Calculation
    Yes,                      !- Run Simulation for Sizing Periods
    No,                       !- Run Simulation for Weather File Run Periods
    No,                       !- Do HVAC Sizing Simulation for Sizing Periods
    1;                        !- Maximum Number of HVAC Sizing Simulation Passes

Building,
    NONE,                     !- Name
    0,                        !- North Axis
    Suburbs,                  !- Terrain
    0.039999999,              !- Loads Convergence Tolerance Value
    0.0040000002,             !- Temperature Convergence Tolerance Value
    FullInteriorAndExterior,    !- Solar Distribution
    25,                       !- Maximum Number of Warmup Days
    6;                        !- Minimum Number of Warmup Days

ShadowCalculation,
    PolygonClipping,          !- Shading Calculation Method
    Periodic,                 !- Shading Calculation Update Frequency Method
    20;                       !- Shading Calculation Update Frequency

SurfaceConvectionAlgorithm:Inside,
    TARP;                     !- Algorithm

SurfaceConvectionAlgorithm:Outside,
    DOE-2;                    !- Algorithm

HeatBalanceAlgorithm,
    ConductionTransferFunction;    !- Algorithm

ZoneAirHeatBalanceAlgorithm,
    EulerMethod;              !- Algorithm

Timestep,
    6;                        !- Number of Timesteps per Hour

Site:Location,
    SAN_FRANCISCO_CA_USA_WMO_724940,    !- Name
    37.62,                    !- Latitude
    -122.37,                  !- Longitude
    -8,                       !- Time Zone
    5;                        !- Elevation

SizingPeriod:DesignDay,
    SAN_FRANCISCO Ann Htg 99% Condns DB,    !- Name
    1,                        !- Month
    21,                       !- Day of Month
    WinterDesignDay,          !- Day Type
    4.4,                      !- Maximum DryBulb Temperature
    0,                        !- Daily DryBulb Temperature Range
    ,                         !- DryBulb Temperature Range Modifier Type
    ,                         !- DryBulb Temperature Range Modifier Day Schedule Name
    Wetbulb,                  !- Humidity Condition Type
    4.4,                      !- Wetbulb or DewPoint at Maximum DryBulb
    ,                         !- Humidity Condition Day Schedule Name
    ,                         !- Humidity Ratio at Maximum DryBulb
    ,                         !- Enthalpy at Maximum DryBulb
    ,                         !- Daily WetBulb Temperature Range
    101265,                   !- Barometric Pressure
    2.4,                      !- Wind Speed
    140,                      !- Wind Direction
    No,                       !- Rain Indicator
    No,                       !- Snow Indicator
    No,                       !- Daylight Saving Time Indicator
    ASHRAEClearSky,           !- Solar Model Indicator
    ,                         !- Beam Solar Day Schedule Name
    ,                         !- Diffuse Solar Day Schedule Name
    ,                         !- ASHRAE Clear Sky Optical Depth for Beam Irradiance taub
    ,                         !- ASHRAE Clear Sky Optical Depth for Diffuse Irradiance taud
    0;                        !- Sky Clearness

SizingPeriod:DesignDay,
    SAN_FRANCISCO Ann Clg 1% Condns DB=>MWB,    !- Name
    9,                        !- Month
    21,                       !- Day of Month
    SummerDesignDay,          !- Day Type
    25.6,                     !- Maximum DryBulb Temperature
    9,                        !- Daily DryBulb Temperature Range
    ,                         !- DryBulb Temperature Range Modifier Type
    ,                         !- DryBulb Temperature Range Modifier Day Schedule Name
    Wetbulb,                  !- Humidity Condition Type
    16.6,                     !- Wetbulb or DewPoint at Maximum DryBulb
    ,                         !- Humidity Condition Day Schedule Name
    ,                         !- Humidity Ratio at Maximum DryBulb
    ,                         !- Enthalpy at Maximum DryBulb
    ,                         !- Daily WetBulb Temperature Range
    101265,                   !- Barometric Pressure
    5.8,                      !- Wind Speed
    310,                      !- Wind Direction
    No,                       !- Rain Indicator
    No,                       !- Snow Indicator
    No,                       !- Daylight Saving Time Indicator
    ASHRAEClearSky,           !- Solar Model Indicator
    ,                         !- Beam Solar Day Schedule Name
    ,                         !- Diffuse Solar Day Schedule Name
    ,                         !- ASHRAE Clear Sky Optical Depth for Beam Irradiance taub
    ,                         !- ASHRAE Clear Sky Optical Depth for Diffuse Irradiance taud
    1;                        !- Sky Clearness

RunPeriod,
    Run Period 1,             !- Name
    7,                        !- Begin Month
    28,                       !- Begin Day of Month
    ,                         !- Begin Year
    7,                        !- End Month
    29,                       !- End Day of Month
    ,                         !- End Year
    ,                         !- Day of Week for Start Day
    No,                       !- Use Weather File Holidays and Special Days
    No,                       !- Use Weather File Daylight Saving Period
    No,                       !- Apply Weekend Holiday Rule
    Yes,                      !- Use Weather File Rain Indicators
    Yes;                      !- Use Weather File Snow Indicators

Site:GroundTemperature:BuildingSurface,
    20,                       !- January Ground Temperature
    20,                       !- February Ground Temperature
    20,                       !- March Ground Temperature
    20,                       !- April Ground Temperature
    20,                       !- May Ground Temperature
    20,                       !- June Ground Temperature
    20,                       !- July Ground Temperature
    20,                       !- August Ground Temperature
    20,                       !- September Ground Temperature
    20,                       !- October Ground Temperature
    20,                       !- November Ground Temperature
    20;                       !- December Ground Temperature

ScheduleTypeLimits,
    Fraction,                 !- Name
    0.0,                      !- Lower Limit Value
    1.0,                      !- Upper Limit Value
    CONTINUOUS;               !- Numeric Type

ScheduleTypeLimits,
    On/Off,                   !- Name
    0,                        !- Lower Limit Value
    1,                        !- Upper Limit Value
    DISCRETE;                 !- Numeric Type

ScheduleTypeLimits,
    Big Fraction,             !- Name
    ,                         !- Lower Limit Value
    ,                         !- Upper Limit Value
    CONTINUOUS;               !- Numeric Type

Schedule:Compact,
    Constant - .3,            !- Name
    on/off,                   !- Schedule Type Limits Name
    Through: 12/31,           !- Field 1
    For: AllDays,             !- Field 2
    Until: 24:00,             !- Field 3
    .2;                       !- Field 4

Schedule:Compact,
    TransOff,                 !- Name
    Fraction,                 !- Schedule Type Limits Name
    Through: 12/31,           !- Field 1
    For: AllDays,             !- Field 2
    Until: 24:00,             !- Field 3
    0;                        !- Field 4

Schedule:Compact,
    WorkHours ScheduleG,      !- Name
    Fraction,                 !- Schedule Type Limits Name
    Through: 12/31,           !- Field 1
    For: AllDays,             !- Field 2
    Until: 7:00,              !- Field 3
    0,                        !- Field 4
    Until: 8:00,              !- Field 5
    0.25,                     !- Field 6
    Until: 9:00,              !- Field 7
    0.75,                     !- Field 8
    Until: 19:00,             !- Field 9
    1.00,                     !- Field 10
    Until: 20:00,             !- Field 11
    0.75,                     !- Field 12
    Until: 24:00,             !- Field 13
    0;                        !- Field 14

Schedule:Compact,
    Live Gang,                !- Name
    Big Fraction,             !- Schedule Type Limits Name
    Through: 12/31,           !- Field 1
    For: AllDays,             !- Field 2
    Interpolate: No,          !- Field 3
    Until: 24:00,             !- Field 4
    120;                      !- Field 5

Material,
    B5 - 1 IN DENSE INSULATION,    !- Name
    VeryRough,                !- Roughness
    0.025389841,              !- Thickness
    0.025,                    !- Conductivity
    91.30524,                 !- Density
    836.8,                    !- Specific Heat
    0.9,                      !- Thermal Absorptance
    0.5,                      !- Solar Absorptance
    0.5;                      !- Visible Absorptance

Material,
    C12 - 2 IN HW CONCRETE,    !- Name
    MediumRough,              !- Roughness
    0.0250901599,             !- Thickness
    1.729577,                 !- Conductivity
    2242.585,                 !- Density
    836.8,                    !- Specific Heat
    0.9,                      !- Thermal Absorptance
    0.65,                     !- Solar Absorptance
    0.65;                     !- Visible Absorptance

Material:AirGap,
    HF-B1,                    !- Name
    0.1603;                   !- Thermal Resistance

Material:AirGap,
    AirSpace100,              !- Name
    0.2;                      !- Thermal Resistance

WindowMaterial:Glazing,
    CLEAR 6MM,                !- Name
    SpectralAverage,          !- Optical Data Type
    ,                         !- Window Glass Spectral Data Set Name
    0.006,                    !- Thickness
    0.775,                    !- Solar Transmittance at Normal Incidence
    0.071,                    !- Front Side Solar Reflectance at Normal Incidence
    0.071,                    !- Back Side Solar Reflectance at Normal Incidence
    0.881,                    !- Visible Transmittance at Normal Incidence
    0.08,                     !- Front Side Visible Reflectance at Normal Incidence
    0.08,                     !- Back Side Visible Reflectance at Normal Incidence
    0,                        !- Infrared Transmittance at Normal Incidence
    0.84,                     !- Front Side Infrared Hemispherical Emissivity
    0.84,                     !- Back Side Infrared Hemispherical Emissivity
    0.9;                      !- Conductivity

WindowMaterial:Gas,
    AIR 13MM,                 !- Name
    Air,                      !- Gas Type
    0.0127;                   !- Thickness

Construction,
    Dbl Clr 6mm/13mm Air,     !- Name
    CLEAR 6MM,                !- Outside Layer
    AIR 13MM,                 !- Layer 2
    CLEAR 6MM;                !- Layer 3

Construction,
    Wall1,                    !- Name
    C12 - 2 IN HW CONCRETE,    !- Outside Layer
    C12 - 2 IN HW CONCRETE,    !- Layer 2
    B5 - 1 IN DENSE INSULATION,    !- Layer 3
    B5 - 1 IN DENSE INSULATION;    !- Layer 4

Construction,
    Floor1,                   !- Name
    B5 - 1 IN DENSE INSULATION,    !- Outside Layer
    B5 - 1 IN DENSE INSULATION,    !- Layer 2
    B5 - 1 IN DENSE INSULATION,    !- Layer 3
    C12 - 2 IN HW CONCRETE,    !- Layer 4
    C12 - 2 IN HW CONCRETE,    !- Layer 5
    C12 - 2 IN HW CONCRETE;    !- Layer 6

Construction,
    Ceiling1,                 !- Name
    B5 - 1 IN DENSE INSULATION,    !- Outside Layer
    B5 - 1 IN DENSE INSULATION,    !- Layer 2
    B5 - 1 IN DENSE INSULATION,    !- Layer 3
    C12 - 2 IN HW CONCRETE,    !- Layer 4
    C12 - 2 IN HW CONCRETE,    !- Layer 5
    C12 - 2 IN HW CONCRETE;    !- Layer 6

GlobalGeometryRules,
    UpperLeftCorner,          !- Starting Vertex Position
    CounterClockWise,         !- Vertex Entry Direction
    Relative;                 !- Coordinate System

Zone,
    ZONE ONE,                 !- Name
    0,                        !- Direction of Relative North
    0,                        !- X Origin
    0,                        !- Y Origin
    0,                        !- Z Origin
    1,                        !- Type
    1,                        !- Multiplier
    autocalculate,            !- Ceiling Height
    autocalculate;            !- Volume

BuildingSurface:Detailed,
    Zn001:Wall001,            !- Name
    Wall,                     !- Surface Type
    Wall1,                    !- Construction Name
    ZONE ONE,                 !- Zone Name
    ,                         !- Space Name
    Outdoors,                 !- Outside Boundary Condition
    ,                         !- Outside Boundary Condition Object
    SunExposed,               !- Sun Exposure
    WindExposed,              !- Wind Exposure
    0.6,                      !- View Factor to Ground
    4,                        !- Number of Vertices
    0,                        !- Vertex 1 Xcoordinate
    0,                        !- Vertex 1 Ycoordinate
    4,                        !- Vertex 1 Zcoordinate
    0,                        !- Vertex 2 Xcoordinate
    0,                        !- Vertex 2 Ycoordinate
    0,                        !- Vertex 2 Zcoordinate
    10,                       !- Vertex 3 Xcoordinate
    0,                        !- Vertex 3 Ycoordinate
    0,                        !- Vertex 3 Zcoordinate
    10,                       !- Vertex 4 Xcoordinate
    0,                        !- Vertex 4 Ycoordinate
    4;                        !- Vertex 4 Zcoordinate

BuildingSurface:Detailed,
    Zn001:Wall002,            !- Name
    Wall,                     !- Surface Type
    Wall1,                    !- Construction Name
    ZONE ONE,                 !- Zone Name
    ,                         !- Space Name
    Outdoors,                 !- Outside Boundary Condition
    ,                         !- Outside Boundary Condition Object
    SunExposed,               !- Sun Exposure
    WindExposed,              !- Wind Exposure
    0.4,                      !- View Factor to Ground
    4,                        !- Number of Vertices
    10,                       !- Vertex 1 Xcoordinate
    0,                        !- Vertex 1 Ycoordinate
    4,                        !- Vertex 1 Zcoordinate
    10,                       !- Vertex 2 Xcoordinate
    0,                        !- Vertex 2 Ycoordinate
    0,                        !- Vertex 2 Zcoordinate
    10,                       !- Vertex 3 Xcoordinate
    8,                        !- Vertex 3 Ycoordinate
    0,                        !- Vertex 3 Zcoordinate
    10,                       !- Vertex 4 Xcoordinate
    8,                        !- Vertex 4 Ycoordinate
    4;                        !- Vertex 4 Zcoordinate

BuildingSurface:Detailed,
    Zn001:Wall003,            !- Name
    Wall,                     !- Surface Type
    Wall1,                    !- Construction Name
    ZONE ONE,                 !- Zone Name
    ,                         !- Space Name
    Outdoors,                 !- Outside Boundary Condition
    ,                         !- Outside Boundary Condition Object
    SunExposed,               !- Sun Exposure
    WindExposed,              !- Wind Exposure
    0.3,                      !- View Factor to Ground
    4,                        !- Number of Vertices
    10,                       !- Vertex 1 Xcoordinate
    8,                        !- Vertex 1 Ycoordinate
    4,                        !- Vertex 1 Zcoordinate
    10,                       !- Vertex 2 Xcoordinate
    8,                        !- Vertex 2 Ycoordinate
    0,                        !- Vertex 2 Zcoordinate
    0,                        !- Vertex 3 Xcoordinate
    8,                        !- Vertex 3 Ycoordinate
    0,                        !- Vertex 3 Zcoordinate
    0,                        !- Vertex 4 Xcoordinate
    8,                        !- Vertex 4 Ycoordinate
    4;                        !- Vertex 4 Zcoordinate

BuildingSurface:Detailed,
    Zn001:Wall004,            !- Name
    Wall,                     !- Surface Type
    Wall1,                    !- Construction Name
    ZONE ONE,                 !- Zone Name
    ,                         !- Space Name
    Outdoors,                 !- Outside Boundary Condition
    ,                         !- Outside Boundary Condition Object
    SunExposed,               !- Sun Exposure
    WindExposed,              !- Wind Exposure
    0.3,                      !- View Factor to Ground
    4,                        !- Number of Vertices
    0,                        !- Vertex 1 Xcoordinate
    8,                        !- Vertex 1 Ycoordinate
    4,                        !- Vertex 1 Zcoordinate
    0,                        !- Vertex 2 Xcoordinate
    8,                        !- Vertex 2 Ycoordinate
    0,                        !- Vertex 2 Zcoordinate
    0,                        !- Vertex 3 Xcoordinate
    0,                        !- Vertex 3 Ycoordinate
    0,                        !- Vertex 3 Zcoordinate
    0,                        !- Vertex 4 Xcoordinate
    0,                        !- Vertex 4 Ycoordinate
    4;                        !- Vertex 4 Zcoordinate

BuildingSurface:Detailed,
    FLOOR,                    !- Name
    FLOOR,                    !- Surface Type
    Floor1,                   !- Construction Name
    ZONE ONE,                 !- Zone Name
    ,                         !- Space Name
    Ground,                   !- Outside Boundary Condition
    ,                         !- Outside Boundary Condition Object
    NoSun,                    !- Sun Exposure
    NoWind,                   !- Wind Exposure
    0.3,                      !- View Factor to Ground
    4,                        !- Number of Vertices
    0,                        !- Vertex 1 Xcoordinate
    0,                        !- Vertex 1 Ycoordinate
    0,                        !- Vertex 1 Zcoordinate
    0,                        !- Vertex 2 Xcoordinate
    8,                        !- Vertex 2 Ycoordinate
    0,                        !- Vertex 2 Zcoordinate
    10,                       !- Vertex 3 Xcoordinate
    8,                        !- Vertex 3 Ycoordinate
    0,                        !- Vertex 3 Zcoordinate
    10,                       !- Vertex 4 Xcoordinate
    0,                        !- Vertex 4 Ycoordinate
    0;                        !- Vertex 4 Zcoordinate

BuildingSurface:Detailed,
    CEILING,                  !- Name
    CEILING,                  !- Surface Type
    Ceiling1,                 !- Construction Name
    ZONE ONE,                 !- Zone Name
    ,                         !- Space Name
    Outdoors,                 !- Outside Boundary Condition
    ,                         !- Outside Boundary Condition Object
    SunExposed,               !- Sun Exposure
    WindExposed,              !- Wind Exposure
    0.5,                      !- View Factor to Ground
    4,                        !- Number of Vertices
    0,                        !- Vertex 1 Xcoordinate
    8,                        !- Vertex 1 Ycoordinate
    4,                        !- Vertex 1 Zcoordinate
    0,                        !- Vertex 2 Xcoordinate
    0,                        !- Vertex 2 Ycoordinate
    4,                        !- Vertex 2 Zcoordinate
    10,                       !- Vertex 3 Xcoordinate
    0,                        !- Vertex 3 Ycoordinate
    4,                        !- Vertex 3 Zcoordinate
    10,                       !- Vertex 4 Xcoordinate
    8,                        !- Vertex 4 Ycoordinate
    4;                        !- Vertex 4 Zcoordinate

FenestrationSurface:Detailed,
    win1,                     !- Name
    WINDOW,                   !- Surface Type
    Dbl Clr 6mm/13mm Air,     !- Construction Name
    Zn001:Wall001,            !- Building Surface Name
    ,                         !- Outside Boundary Condition Object
    0.5,                      !- View Factor to Ground
    ,                         !- Frame and Divider Name
    1,                        !- Multiplier
    4,                        !- Number of Vertices
    0.02,                     !- Vertex 1 Xcoordinate
    0,                        !- Vertex 1 Ycoordinate
    3.8,                      !- Vertex 1 Zcoordinate
    0.02,                     !- Vertex 2 Xcoordinate
    0,                        !- Vertex 2 Ycoordinate
    3,                        !- Vertex 2 Zcoordinate
    9.98,                     !- Vertex 3 Xcoordinate
    0,                        !- Vertex 3 Ycoordinate
    3,                        !- Vertex 3 Zcoordinate
    9.98,                     !- Vertex 4 Xcoordinate
    0,                        !- Vertex 4 Ycoordinate
    3.8;                      !- Vertex 4 Zcoordinate

FenestrationSurface:Detailed,
    win11,                    !- Name
    WINDOW,                   !- Surface Type
    Dbl Clr 6mm/13mm Air,     !- Construction Name
    Zn001:Wall001,            !- Building Surface Name
    ,                         !- Outside Boundary Condition Object
    0.5,                      !- View Factor to Ground
    ,                         !- Frame and Divider Name
    1,                        !- Multiplier
    4,                        !- Number of Vertices
    0.02,                     !- Vertex 1 Xcoordinate
    0,                        !- Vertex 1 Ycoordinate
    4,                        !- Vertex 1 Zcoordinate
    0.02,                     !- Vertex 2 Xcoordinate
    0,                        !- Vertex 2 Ycoordinate
    3.81,                     !- Vertex 2 Zcoordinate
    10,                       !- Vertex 3 Xcoordinate
    0,                        !- Vertex 3 Ycoordinate
    3.81,                     !- Vertex 3 Zcoordinate
    10,                       !- Vertex 4 Xcoordinate
    0,                        !- Vertex 4 Ycoordinate
    4;                        !- Vertex 4 Zcoordinate

FenestrationSurface:Detailed,
    win3,                     !- Name
    WINDOW,                   !- Surface Type
    Dbl Clr 6mm/13mm Air,     !- Construction Name
    Zn001:Wall003,            !- Building Surface Name
    ,                         !- Outside Boundary Condition Object
    0.5,                      !- View Factor to Ground
    ,                         !- Frame and Divider Name
    1,                        !- Multiplier
    4,                        !- Number of Vertices
    10,                       !- Vertex 1 Xcoordinate
    8,                        !- Vertex 1 Ycoordinate
    4,                        !- Vertex 1 Zcoordinate
    10,                       !- Vertex 2 Xcoordinate
    8,                        !- Vertex 2 Ycoordinate
    3,                        !- Vertex 2 Zcoordinate
    0.02,                     !- Vertex 3 Xcoordinate
    8,                        !- Vertex 3 Ycoordinate
    3,                        !- Vertex 3 Zcoordinate
    0.02,                     !- Vertex 4 Xcoordinate
    8,                        !- Vertex 4 Ycoordinate
    4;                        !- Vertex 4 Zcoordinate

FenestrationSurface:Detailed,
    win31,                    !- Name
    WINDOW,                   !- Surface Type
    Dbl Clr 6mm/13mm Air,     !- Construction Name
    Zn001:Wall003,            !- Building Surface Name
    ,                         !- Outside Boundary Condition Object
    0.5,                      !- View Factor to Ground
    ,                         !- Frame and Divider Name
    1,                        !- Multiplier
    4,                        !- Number of Vertices
    10,                       !- Vertex 1 Xcoordinate
    8,                        !- Vertex 1 Ycoordinate
    0.15,                     !- Vertex 1 Zcoordinate
    10,                       !- Vertex 2 Xcoordinate
    8,                        !- Vertex 2 Ycoordinate
    0,                        !- Vertex 2 Zcoordinate
    0.02,                     !- Vertex 3 Xcoordinate
    8,                        !- Vertex 3 Ycoordinate
    0,                        !- Vertex 3 Zcoordinate
    0.02,                     !- Vertex 4 Xcoordinate
    8,                        !- Vertex 4 Ycoordinate
    0.15;                     !- Vertex 4 Zcoordinate

Shading:Zone:Detailed,
    SHAS,                     !- Name
    CEILING,                  !- Base Surface Name
    TransOff,                 !- Transmittance Schedule Name
    4,                        !- Number of Vertices
    0,                        !- Vertex 1 Xcoordinate
    1,                        !- Vertex 1 Ycoordinate
    4,                        !- Vertex 1 Zcoordinate
    0,                        !- Vertex 2 Xcoordinate
    -1,                       !- Vertex 2 Ycoordinate
    4,                        !- Vertex 2 Zcoordinate
    10,                       !- Vertex 3 Xcoordinate
    -1,                       !- Vertex 3 Ycoordinate
    4,                        !- Vertex 3 Zcoordinate
    10,                       !- Vertex 4 Xcoordinate
    1,                        !- Vertex 4 Ycoordinate
    4;                        !- Vertex 4 Zcoordinate

RoomAirModelType,
    MOD1,                     !- Name
    ZONE ONE,                 !- Zone Name
    ThreeNodeDisplacementVentilation,    !- RoomAir Modeling Type
    DIRECT;                   !- Air Temperature Coupling Strategy

RoomAirSettings:ThreeNodeDisplacementVentilation,
    ZONE ONE,                 !- Zone Name
    Constant - .3,            !- Gain Distribution Schedule Name
    1,                        !- Number of Plumes per Occupant
    1.1,                      !- Thermostat Height
    1.1,                      !- Comfort Height
    0.3;                      !- Temperature Difference Threshold for Reporting

People,
    ZONE ONE People 1,        !- Name
    ZONE ONE,                 !- Zone or ZoneList or Space or SpaceList Name
    WorkHours ScheduleG,      !- Number of People Schedule Name
    people,                   !- Number of People Calculation Method
    10,                       !- Number of People
    ,                         !- People per Floor Area
    ,                         !- Floor Area per Person
    0.5,                      !- Fraction Radiant
    ,                         !- Sensible Heat Fraction
    Live Gang;                !- Activity Level Schedule Name

ElectricEquipment,
    ZONE ONE ElecEq 1,        !- Name
    ZONE ONE,                 !- Zone or ZoneList or Space or SpaceList Name
    WorkHours ScheduleG,      !- Schedule Name
    EquipmentLevel,           !- Design Level Calculation Method
    2200,                     !- Design Level
    ,                         !- Watts per Zone Floor Area
    ,                         !- Watts per Person
    0,                        !- Fraction Latent
    0.5,                      !- Fraction Radiant
    0;                        !- Fraction Lost

AirflowNetwork:SimulationControl,
    VENT,                     !- Name
    MultizoneWithoutDistribution,    !- AirflowNetwork Control
    INPUT,                    !- Wind Pressure Coefficient Type
    ExternalNode,             !- Height Selection for Local Wind Pressure Calculation
    LOWRISE,                  !- Building Type
    500,                      !- Maximum Number of Iterations
    ZeroNodePressures,        !- Initialization Type
    1e-05,                    !- Relative Airflow Convergence Tolerance
    1e-06,                    !- Absolute Airflow Convergence Tolerance
    -0.5,                     !- Convergence Acceleration Limit
    90,                       !- Azimuth Angle of Long Axis of Building
    0.833,                    !- Ratio of Building Width Along Short Axis to Width Along Long Axis
    ,                         !- Height Dependence of External Node Temperature
    ,                         !- Solver
    ,                         !- Allow Unsupported Zone Equipment
    ;                         !- Do Distribution Duct Sizing Calculation

AirflowNetwork:MultiZone:Zone,
    ZONE ONE,                 !- Zone Name
    CONSTANT,                 !- Ventilation Control Mode
    ,                         !- Ventilation Control Zone Temperature Setpoint Schedule Name
    1,                        !- Minimum Venting Open Factor
    0,                        !- Indoor and Outdoor Temperature Difference Lower Limit For Maximum Venting Open Factor
    100,                      !- Indoor and Outdoor Temperature Difference Upper Limit for Minimum Venting Open Factor
    0,                        !- Indoor and Outdoor Enthalpy Difference Lower Limit For Maximum Venting Open Factor
    300000;                   !- Indoor and Outdoor Enthalpy Difference Upper Limit for Minimum Venting Open Factor

AirflowNetwork:MultiZone:Surface,
    win11,                    !- Surface Name
    VW,                       !- Leakage Component Name
    No1,                      !- External Node Name
    1;                        !- WindowDoor Opening Factor or Crack Factor

AirflowNetwork:MultiZone:Surface,
    win31,                    !- Surface Name
    VW,                       !- Leakage Component Name
    No2,                      !- External Node Name
    1;                        !- WindowDoor Opening Factor or Crack Factor

AirflowNetwork:MultiZone:Surface,
    Zn001:Wall002,            !- Surface Name
    crteste,                  !- Leakage Component Name
    No1,                      !- External Node Name
    1;                        !- WindowDoor Opening Factor or Crack Factor

AirflowNetwork:MultiZone:ReferenceCrackConditions,
    ReferenceCrackConditions,    !- Name
    20,                       !- Reference Temperature