!- Darwin Line endings 

Version,
    22.2;                     !- Version Identifier

SimulationControl,
    No,                       !- Do Zone Sizing Calculation
    No,                       !- Do System Sizing Calculation
    No,                       !- Do Plant Sizing Calculation
    No,                       !- Run Simulation for Sizing Periods
    Yes,                      !- Run Simulation for Weather File Run Periods
    No,                       !- Do HVAC Sizing Simulation for Sizing Periods
    1;                        !- Maximum Number of HVAC Sizing Simulation Passes

Building,
    None,                     !- Name
    0,                        !- North Axis
    Suburbs,                  !- Terrain
    0.04,                     !- Loads Convergence Tolerance Value
    0.4,                      !- Temperature Convergence Tolerance Value
    FullInteriorAndExterior,    !- Solar Distribution
    25,                       !- Maximum Number of Warmup Days
    6;                        !- Minimum Number of Warmup Days

Timestep,
    4;                        !- Number of Timesteps per Hour

SITE:LOCATION,
    "PALO-ALTO-AP",           !- Name
    37.461,                   !- Latitude
    -122.115,                 !- Longitude
    -8,                       !- Time Zone
    1;                        !- Elevation

RUNPERIOD,
    SummerDay,                !- Name
    7,                        !- Begin Month
    1,                        !- Begin Day of Month
    ,                         !- Begin Year
    7,                        !- End Month
    1,                        !- End Day of Month
    ,                         !- End Year
    ,                         !- Day of Week for Start Day
    Yes,                      !- Use Weather File Holidays and Special Days
    Yes,                      !- Use Weather File Daylight Saving Period
    No,                       !- Apply Weekend Holiday Rule
    Yes,                      !- Use Weather File Rain Indicators
    Yes,                      !- Use Weather File Snow Indicators
    No,                       !- Treat Weather as Actual
    Hour24;                   !- First Hour Interpolation Starting Values

MATERIAL,
    DefaultMaterial,          !- Name
    Rough,                    !- Roughness
    0.1,                      !- Thickness
    0.1,                      !- Conductivity
    1000,                     !- Density
    1000,                     !- Specific Heat
    0.9,                      !- Thermal Absorptance
    0.7,                      !- Solar Absorptance
    0.7;                      !- Visible Absorptance

WINDOWMATERIAL:SIMPLEGLAZINGSYSTEM,
    DefaultGlazing,           !- Name
    2.7,                      !- UFactor
    0.763,                    !- Solar Heat Gain Coefficient
    0.8;                      !- Visible Transmittance

CONSTRUCTION,
    Project Wall,             !- Name
    DefaultMaterial;          !- Outside Layer

CONSTRUCTION,
    Project Partition,        !- Name
    DefaultMaterial;          !- Outside Layer

CONSTRUCTION,
    Project Floor,            !- Name
    DefaultMaterial;          !- Outside Layer

CONSTRUCTION,
    Project Flat Roof,        !- Name
    DefaultMaterial;          !- Outside Layer

CONSTRUCTION,
    Project Ceiling,          !- Name
    DefaultMaterial;          !- Outside Layer

CONSTRUCTION,
    Project Door,             !- Name
    DefaultMaterial;          !- Outside Layer

CONSTRUCTION,
    Project External Window,    !- Name
    DefaultGlazing;           !- Outside Layer

GlobalGeometryRules,
    UpperLeftCorner,          !- Starting Vertex Position
    CounterClockWise,         !- Vertex Entry Direction
    World;                    !- Coordinate System

ZONE,
    Block 00 Storey 0,        !- Name
    0,                        !- Direction of Relative North
    0,                        !- X Origin
    0,                        !- Y Origin
    0,                        !- Z Origin
    1,                        !- Type
    1,                        !- Multiplier
    autocalculate,            !- Ceiling Height
    autocalculate,            !- Volume
    autocalculate,            !- Floor Area
    ,                         !- Zone Inside Convection Algorithm
    ,                         !- Zone Outside Convection Algorithm
    Yes;                      !- Part of Total Floor Area

ZONE,
    Block 01 Storey 0,        !- Name
    0,                        !- Direction of Relative North
    0,                        !- X Origin
    0,                        !- Y Origin
    0,                        !- Z Origin
    1,                        !- Type
    1,                        !- Multiplier
    autocalculate,            !- Ceiling Height
    autocalculate,            !- Volume
    autocalculate,            !- Floor Area
    ,                         !- Zone Inside Convection Algorithm
    ,                         !- Zone Outside Convection Algorithm
    Yes;                      !- Part of Total Floor Area

BUILDINGSURFACE:DETAILED,
    Block 00 Storey 0 Wall 0001,    !- Name
    wall,                     !- Surface Type
    Project Wall,             !- Construction Name
    Block 00 Storey 0,        !- Zone Name
    ,                         !- Space Name
    outdoors,                 !- Outside Boundary Condition
    ,                         !- Outside Boundary Condition Object
    SunExposed,               !- Sun Exposure
    WindExposed,              !- Wind Exposure
    autocalculate,            !- View Factor to Ground
    autocalculate,            !- Number of Vertices
    100,                      !- Vertex 1 Xcoordinate
    70,                       !- Vertex 1 Ycoordinate
    10,                       !- Vertex 1 Zcoordinate
    100,                      !- Vertex 2 Xcoordinate
    70,                       !- Vertex 2 Ycoordinate
    0,                        !- Vertex 2 Zcoordinate
    100,                      !- Vertex 3 Xcoordinate
    100,                      !- Vertex 3 Ycoordinate
    0,                        !- Vertex 3 Zcoordinate
    100,                      !- Vertex 4 Xcoordinate
    100,                      !- Vertex 4 Ycoordinate
    10;                       !- Vertex 4 Zcoordinate

BUILDINGSURFACE:DETAILED,
    Block 00 Storey 0 Wall 0002,    !- Name
    wall,                     !- Surface Type
    Project Wall,             !- Construction Name
    Block 00 Storey 0,        !- Zone Name
    ,                         !- Space Name
    outdoors,                 !- Outside Boundary Condition
    ,                         !- Outside Boundary Condition Object
    SunExposed,               !- Sun Exposure
    WindExposed,              !- Wind Exposure
    autocalculate,            !- View Factor to Ground
    autocalculate,            !- Number of Vertices
    100,                      !- Vertex 1 Xcoordinate
    100,                      !- Vertex 1 Ycoordinate
    10,                       !- Vertex 1 Zcoordinate
    100,                      !- Vertex 2 Xcoordinate
    100,                      !- Vertex 2 Ycoordinate
    0,                        !- Vertex 2 Zcoordinate
    0,                        !- Vertex 3 Xcoordinate
    100,                      !- Vertex 3 Ycoordinate
    0,                        !- Vertex 3 Zcoordinate
    0,                        !- Vertex 4 Xcoordinate
    100,                      !- Vertex 4 Ycoordinate
    10;                       !- Vertex 4 Zcoordinate

BUILDINGSURFACE:DETAILED,
    Block 00 Storey 0 Wall 0003,    !- Name
    wall,                     !- Surface Type
    Project Wall,             !- Construction Name
    Block 00 Storey 0,        !- Zone Name
    ,                         !- Space Name
    outdoors,                 !- Outside Boundary Condition
    ,                         !- Outside Boundary Condition Object
    SunExposed,               !- Sun Exposure
    WindExposed,              !- Wind Exposure
    autocalculate,            !- View Factor to Ground
    autocalculate,            !- Number of Vertices
    0,                        !- Vertex 1 Xcoordinate
    100,                      !- Vertex 1 Ycoordinate
    10,                       !- Vertex 1 Zcoordinate
    0,                        !- Vertex 2 Xcoordinate
    100,                      !- Vertex 2 Ycoordinate
    0,                        !- Vertex 2 Zcoordinate
    0,                        !- Vertex 3 Xcoordinate
    70,                       !- Vertex 3 Ycoordinate
    0,                        !- Vertex 3 Zcoordinate
    0,                        !- Vertex 4 Xcoordinate
    70,                       !- Vertex 4 Ycoordinate
    10;                       !- Vertex 4 Zcoordinate

BUILDINGSURFACE:DETAILED,
    Block 00 Storey 0 Floor 0001,    !- Name
    floor,                    !- Surface Type
    Project Floor,            !- Construction Name
    Block 00 Storey 0,        !- Zone Name
    ,                         !- Space Name
    ground,                   !- Outside Boundary Condition
    ,                         !- Outside Boundary Condition Object
    NoSun,                    !- Sun Exposure
    NoWind,                   !- Wind Exposure
    autocalculate,            !- View Factor to Ground
    autocalculate,            !- Number of Vertices
    100,                      !- Vertex 1 Xcoordinate
    100,                      !- Vertex 1 Ycoordinate
    0,                        !- Vertex 1 Zcoordinate
    100,                      !- Vertex 2 Xcoordinate
    70,                       !- Vertex 2 Ycoordinate
    0,                        !- Vertex 2 Zcoordinate
    0,                        !- Vertex 3 Xcoordinate
    70,                       !- Vertex 3 Ycoordinate
    0,                        !- Vertex 3 Zcoordinate
    0,                        !- Vertex 4 Xcoordinate
    100,                      !- Vertex 4 Ycoordinate
    0;                        !- Vertex 4 Zcoordinate

BUILDINGSURFACE:DETAILED,
    Block 00 Storey 0 Roof 0001,    !- Name
    roof,                     !- Surface Type
    Project Flat Roof,        !- Construction Name
    Block 00 Storey 0,        !- Zone Name
    ,                         !- Space Name
    outdoors,                 !- Outside Boundary Condition
    ,                         !- Outside Boundary Condition Object
    SunExposed,               !- Sun Exposure
    WindExposed,              !- Wind Exposure
    autocalculate,            !- View Factor to Ground
    autocalculate,            !- Number of Vertices
    100,                      !- Vertex 1 Xcoordinate
    70,                       !- Vertex 1 Ycoordinate
    10,                       !- Vertex 1 Zcoordinate
    100,                      !- Vertex 2 Xcoordinate
    100,                      !- Vertex 2 Ycoordinate
    10,                       !- Vertex 2 Zcoordinate
    0,                        !- Vertex 3 Xcoordinate
    100,                      !- Vertex 3 Ycoordinate
    10,                       !- Vertex 3 Zcoordinate
    0,                        !- Vertex 4 Xcoordinate
    70,                       !- Vertex 4 Ycoordinate
    10;                       !- Vertex 4 Zcoordinate

BUILDINGSURFACE:DETAILED,
    Block 01 Storey 0 Wall 0001,    !- Name
    wall,                     !- Surface Type
    Project Wall,             !- Construction Name
    Block 01 Storey 0,        !- Zone Name
    ,                         !- Space Name
    outdoors,                 !- Outside Boundary Condition
    ,                         !- Outside Boundary Condition Object
    SunExposed,               !- Sun Exposure
    WindExposed,              !- Wind Exposure
    autocalculate,            !- View Factor to Ground
    autocalculate,            !- Number of Vertices
    50,                       !- Vertex 1 Xcoordinate
    0,                        !- Vertex 1 Ycoordinate
    10,                       !- Vertex 1 Zcoordinate
    50,                       !- Vertex 2 Xcoordinate
    0,                        !- Vertex 2 Ycoordinate
    0,                        !- Vertex 2 Zcoordinate
    50,                       !- Vertex 3 Xcoordinate
    70,                       !- Vertex 3 Ycoordinate
    0,                        !- Vertex 3 Zcoordinate
    50,                       !- Vertex 4 Xcoordinate
    70,                       !- Vertex 4 Ycoordinate
    10;                       !- Vertex 4 Zcoordinate

BUILDINGSURFACE:DETAILED,
    Block 01 Storey 0 Wall 0003,    !- Name
    wall,                     !- Surface Type
    Project Wall,             !- Construction Name
    Block 01 Storey 0,        !- Zone Name
    ,                         !- Space Name
    outdoors,                 !- Outside Boundary Condition
    ,                         !- Outside Boundary Condition Object
    SunExposed,               !- Sun Exposure
    WindExposed,              !- Wind Exposure
    autocalculate,            !- View Factor to Ground
    autocalculate,            !- Number of Vertices
    0,                        !- Vertex 1 Xcoordinate
    70,                       !- Vertex 1 Ycoordinate
    10,                       !- Vertex 1 Zcoordinate
    0,                        !- Vertex 2 Xcoordinate
    70,                       !- Vertex 2 Ycoordinate
    0,                        !- Vertex 2 Zcoordinate
    0,                        !- Vertex 3 Xcoordinate
    0,                        !- Vertex 3 Ycoordinate
    0,                        !- Vertex 3 Zcoordinate
    0,                        !- Vertex 4 Xcoordinate
    0,                        !- Vertex 4 Ycoordinate
    10;                       !- Vertex 4 Zcoordinate

BUILDINGSURFACE:DETAILED,
    Block 01 Storey 0 Wall 0004,    !- Name
    wall,                     !- Surface Type
    Project Wall,             !- Construction Name
    Block 01 Storey 0,        !- Zone Name
    ,                         !- Space Name
    outdoors,                 !- Outside Boundary Condition
    ,                         !- Outside Boundary Condition Object
    SunExposed,               !- Sun Exposure
    WindExposed,              !- Wind Exposure
    autocalculate,            !- View Factor to Ground
    autocalculate,            !- Number of Vertices
    0,                        !- Vertex 1 Xcoordinate
    0,                        !- Vertex 1 Ycoordinate
    10,                       !- Vertex 1 Zcoordinate
    0,                        !- Vertex 2 Xcoordinate
    0,                        !- Vertex 2 Ycoordinate
    0,                        !- Vertex 2 Zcoordinate
    50,                       !- Vertex 3 Xcoordinate
    0,                        !- Vertex 3 Ycoordinate
    0,                        !- Vertex 3 Zcoordinate
    50,                       !- Vertex 4 Xcoordinate
    0,                        !- Vertex 4 Ycoordinate
    10;                       !- Vertex 4 Zcoordinate

BUILDINGSURFACE:DETAILED,
    Block 01 Storey 0 Floor 0001,    !- Name
    floor,                    !- Surface Type
    Project Floor,            !- Construction Name
    Block 01 Storey 0,        !- Zone Name
    ,                         !- Space Name
    ground,                   !- Outside Boundary Condition
    ,                         !- Outside Boundary Condition Object
    NoSun,                    !- Sun Exposure
    NoWind,                   !- Wind Exposure
    autocalculate,            !- View Factor to Ground
    autocalculate,            !- Number of Vertices
    50,                       !- Vertex 1 Xcoordinate
    70,                       !- Vertex 1 Ycoordinate
    0,                        !- Vertex 1 Zcoordinate
    50,                       !- Vertex 2 Xcoordinate
    0,                        !- Vertex 2 Ycoordinate
    0,                        !- Vertex 2 Zcoordinate
    0,                        !- Vertex 3 Xcoordinate
    0,                        !- Vertex 3 Ycoordinate
    0,                        !- Vertex 3 Zcoordinate
    0,                        !- Vertex 4 Xcoordinate
    70,                       !- Vertex 4 Ycoordinate
    0;                        !- Vertex 4 Zcoordinate

BUILDINGSURFACE:DETAILED,
    Block 01 Storey 0 Roof 0001,    !- Name
    roof,                     !- Surface Type
    Project Flat Roof,        !- Construction Name
    Block 01 Storey 0,        !- Zone Name
    ,                         !- Space Name
    outdoors,                 !- Outside Boundary Condition
    ,                         !- Outside Boundary Condition Object
    SunExposed,               !- Sun Exposure
    WindExposed,              !- Wind Exposure
    autocalculate,            !- View Factor to Ground
    autocalculate,            !- Number of Vertices
    50,                       !- Vertex 1 Xcoordinate
    0,                        !- Vertex 1 Ycoordinate
    10,                       !- Vertex 1 Zcoordinate
    50,                       !- Vertex 2 Xcoordinate
    70,                       !- Vertex 2 Ycoordinate
    10,                       !- Vertex 2 Zcoordinate
    0,                        !- Vertex 3 Xcoordinate
    70,                       !- Vertex 3 Ycoordinate
    10,                       !- Vertex 3 Zcoordinate
    0,                        !- Vertex 4 Xcoordinate
    0,                        !- Vertex 4 Ycoordinate
    10;                       !- Vertex 4 Zcoordinate

BUILDINGSURFACE:DETAILED,
    Block 00 Storey 0 Wall 0004_1,    !- Name
    wall,                     !- Surface Type
    Project Partition,        !- Construction Name
    Block 00 Storey 0,        !- Zone Name
    ,                         !- Space Name
    surface,                  !- Outside Boundary Condition
    Block 01 Storey 0 Wall 0002_1,    !- Outside Boundary Condition Object
    NoSun,                    !- Sun Exposure
    NoWind,                   !- Wind Exposure
    autocalculate,            !- View Factor to Ground
    autocalculate,            !- Number of Vertices
    0,                        !- Vertex 1 Xcoordinate
    70,                       !- Vertex 1 Ycoordinate
    10,                       !- Vertex 1 Zcoordinate
    0,                        !- Vertex 2 Xcoordinate
    70,                       !- Vertex 2 Ycoordinate
    0,                        !- Vertex 2 Zcoordinate
    50,                       !- Vertex 3 Xcoordinate
    70,                       !- Vertex 3 Ycoordinate
    0,                        !- Vertex 3 Zcoordinate
    50,                       !- Vertex 4 Xcoordinate
    70,                       !- Vertex 4 Ycoordinate
    10;                       !- Vertex 4 Zcoordinate

BUILDINGSURFACE:DETAILED,
    Block 00 Storey 0 Wall 0004_2,    !- Name
    wall,                     !- Surface Type
    Project Wall,             !- Construction Name
    Block 00 Storey 0,        !- Zone Name
    ,                         !- Space Name
    outdoors,                 !- Outside Boundary Condition
    ,                         !- Outside Boundary Condition Object
    SunExposed,               !- Sun Exposure
    WindExposed,              !- Wind Exposure
    autocalculate,            !- View Factor to Ground
    autocalculate,            !- Number of Vertices
    50,                       !- Vertex 1 Xcoordinate
    70,                       !- Vertex 1 Ycoordinate
    10,                       !- Vertex 1 Zcoordinate
    50,                       !- Vertex 2 Xcoordinate
    70,                       !- Vertex 2 Ycoordinate
    0,                        !- Vertex 2 Zcoordinate
    100,                      !- Vertex 3 Xcoordinate
    70,                       !- Vertex 3 Ycoordinate
    0,                        !- Vertex 3 Zcoordinate
    100,                      !- Vertex 4 Xcoordinate
    70,                       !- Vertex 4 Ycoordinate
    10;                       !- Vertex 4 Zcoordinate

BUILDINGSURFACE:DETAILED,
    Block 01 Storey 0 Wall 0002_1,    !- Name
    wall,                     !- Surface Type
    Project Partition,        !- Construction Name
    Block 01 Storey 0,        !- Zone Name
    ,                         !- Space Name
    surface,                  !- Outside Boundary Condition
    Block 00 Storey 0 Wall 0004_1,    !- Outside Boundary Condition Object
    NoSun,                    !- Sun Exposure
    NoWind,                   !- Wind Exposure
    autocalculate,            !- View Factor to Ground
    autocalculate,            !- Number of Vertices
    50,                       !- Vertex 1 Xcoordinate
    70,                       !- Vertex 1 Ycoordinate
    10,                       !- Vertex 1 Zcoordinate
    50,                       !- Vertex 2 Xcoordinate
    70,                       !- Vertex 2 Ycoordinate
    0,                        !- Vertex 2 Zcoordinate
    0,                        !- Vertex 3 Xcoordinate
    70,                       !- Vertex 3 Ycoordinate
    0,                        !- Vertex 3 Zcoordinate
    0,                        !- Vertex 4 Xcoordinate
    70,                       !- Vertex 4 Ycoordinate
    10;                       !- Vertex 4 Zcoordinate

WINDOW,
    Block 01 Storey 0 Wall 0004 Window,    !- Name
    Project External Window,    !- Construction Name
    Block 01 Storey 0 Wall 0004,    !- Building Surface Name
    ,                         !- Frame and Divider Name
    1.0,                      !- Multiplier
    17.8,                     !- Starting X Coordinate
    3.8,                      !- Starting Z Coordinate
    14.399999999999999,       !- Length
    2.4;                      !- Height

WINDOW,
    Block 01 Storey 0 Wall 0001 Window,    !- Name
    Project External Window,    !- Construction Name
    Block 01 Storey 0 Wall 0001,    !- Building Surface Name
    ,                         !- Frame and Divider Name
    1.0,                      !- Multiplier
    24.8,                     !- Starting X Coordinate
    3.8,                      !- Starting Z Coordinate
    20.4,                     !- Length
    2.4;                      !- Height

WINDOW,
    Block 01 Storey 0 Wall 0003 Window,    !- Name
    Project External Window,    !- Construction Name
    Block 01 Storey 0 Wall 0003,    !- Building Surface Name
    ,                         !- Frame and Divider Name
    1.0,                      !- Multiplier
    24.8,                     !- Starting X Coordinate
    3.8,                      !- Starting Z Coordinate
    20.4,                     !- Length
    2.4;                      !- Height

DOOR,
    Block 00 Storey 0 Wall 0002 Door,    !- Name
    Project Door,             !- Construction Name
    Block 00 Storey 0 Wall 0002,    !- Building Surface Name
    1.0,                      !- Multiplier
    35.3,                     !- Starting X Coordinate
    1,                        !- Starting Z Coordinate
    29.4,                     !- Length
    7.2;                      !- Height

DOOR:INTERZONE,
    Block 00 Storey 0 Wall 0004_1 Door,    !- Name
    Project Door,             !- Construction Name
    Block 00 Storey 0 Wall 0004_1,    !- Building Surface Name
    Block 00 Storey 0 Wall 0004_1 Door Partner,    !- Outside Boundary Condition Object
    1.0,                      !- Multiplier
    17.8,                     !- Starting X Coordinate
    1,                        !- Starting Z Coordinate
    14.399999999999999,       !- Length
    7.2;                      !- Height

DOOR:INTERZONE,
    Block 00 Storey 0 Wall 0004_1 Door Partner,    !- Name
    Project Door,             !- Construction Name
    Block 01 Storey 0 Wall 0002_1,    !- Building Surface Name
    Block 00 Storey 0 Wall 0004_1 Door,    !- Outside Boundary Condition Object
    1.0,                      !- Multiplier
    17.8,                     !- Starting X Coordinate
    1,                        !- Starting Z Coordinate
    14.399999999999999,       !- Length
    7.2;                      !- Height

SHADING:OVERHANG,
    Block 01 Storey 0 Wall 0004 Window Shading,    !- Name
    Block 01 Storey 0 Wall 0004 Window,    !- Window or Door Name
    0.01,                     !- Height above Window or Door
    90,                       !- Tilt Angle from WindowDoor
    0,                        !- Left extension from WindowDoor Width
    0,                        !- Right extension from WindowDoor Width
    0.3;                      !- Depth

SHADING:OVERHANG,
    Block 01 Storey 0 Wall 0001 Window Shading,    !- Name
    Block 01 Storey 0 Wall 0001 Window,    !- Window or Door Name
    0.01,                     !- Height above Window or Door
    90,                       !- Tilt Angle from WindowDoor
    0,                        !- Left extension from WindowDoor Width
    0,                        !- Right extension from WindowDoor Width
    0.3;                      !- Depth

AIRFLOWNETWORK:SIMULATIONCONTROL,
    AFN_SIM_CONTROL,          !- Name
    MultizoneWithoutDistribution,    !- AirflowNetwork Control
    SurfaceAverageCalculation,    !- Wind Pressure Coefficient Type
    OpeningHeight,            !- Height Selection for Local Wind Pressure Calculation
    LowRise,                  !- Building Type
    500,                      !- Maximum Number of Iterations
    ZeroNodePressures,        !- Initialization Type
    0.0001,                   !- Relative Airflow Convergence Tolerance
    1e-06,                    !- Absolute Airflow Convergence Tolerance
    -0.5,                     !- Convergence Acceleration Limit
    0,                        !- Azimuth Angle of Long Axis of Building
    1,                        !- Ratio of Building Width Along Short Axis to Width Along Long Axis
    No,                       !- Height Dependence of External Node Temperature
    SkylineLU,                !- Solver
    No,                       !- Allow Unsupported Zone Equipment
    No;                       !- Do Distribution Duct Sizing Calculation

AIRFLOWNETWORK:MULTIZONE:ZONE,
    Block 00 Storey 0,        !- Zone Name
    Constant,                 !- Ventilation Control Mode
    ,                         !- Ventilation Control Zone Temperature Setpoint Schedule Name
    0,                        !- Minimum Venting Open Factor
    0,                        !- Indoor and Outdoor Temperature Difference Lower Limit For Maximum Venting Open Factor
    100,                      !- Indoor and Outdoor Temperature Difference Upper Limit for Minimum Venting Open Factor
    0,                        !- Indoor and Outdoor Enthalpy Difference Lower Limit For Maximum Venting Open Factor
    300000,                   !- Indoor and Outdoor Enthalpy Difference Upper Limit for Minimum Venting Open Factor
    ,                         !- Venting Availability Schedule Name
    Standard,                 !- Single Sided Wind Pressure Coefficient Algorithm
    10;                       !- Facade Width

AIRFLOWNETWORK:MULTIZONE:ZONE,
    Block 01 Storey 0,        !- Zone Name
    Constant,                 !- Ventilation Control Mode
    ,                         !- Ventilation Control Zone Temperature Setpoint Schedule Name
    0,                        !- Minimum Venting Open Factor
    0,                        !- Indoor and Outdoor Temperature Difference Lower Limit For Maximum Venting Open Factor
    100,                      !- Indoor and Outdoor Temperature Difference Upper Limit for Minimum Venting Open Factor
    0,                        !- Indoor and Outdoor Enthalpy Difference Lower Limit For Maximum Venting Open Factor
    300000,                   !- Indoor and Outdoor Enthalpy Difference Upper Limit for Minimum Venting Open Factor
    ,                         !- Venting Availability Schedule Name
    Standard,                 !- Single Sided Wind Pressure Coefficient Algorithm
    10;                       !- Facade Width

AIRFLOWNETWORK:MULTIZONE:SURFACE,
    Block 00 Storey 0 Wall 0002 Door,    !- Surface Name
    Block 00 Storey 0 Wall 0002 Door SimpleOpening,    !- Leakage Component Name
    ,                         !- External Node Name
    1,                        !- WindowDoor Opening Factor or Crack Factor
    ZoneLevel,                !- Ventilation Control Mode
    ,                         !- Ventilation Control Zone Temperature Setpoint Schedule Name
    0,                        !- Minimum Venting Open Factor
    0,                        !- Indoor and Outdoor Temperature Difference Lower Limit For Maximum Venting Open Factor
    100,                      !- Indoor and Outdoor Temperature Difference Upper Limit for Minimum Venting Open Factor
    0,                        !- Indoor and Outdoor Enthalpy Difference Lower Limit For Maximum Venting Open Factor
    300000,                   !- Indoor and Outdoor Enthalpy Difference Upper Limit for Minimum Venting Open Factor
    ,                         !- Venting Availability Schedule Name
    ,                         !- Occupant Ventilation Control Name
    PolygonHeight,            !- Equivalent Rectangle Method
    1;                        !- Equivalent Rectangle Aspect Ratio

AIRFLOWNETWORK:MULTIZONE:SURFACE,
    Block 00 Storey 0 Wall 0004_1 Door,    !- Surface Name
    Block 00 Storey 0 Wall 0004_1 Door SimpleOpening,    !- Leakage Component Name
    ,                         !- External Node Name
    1,                        !- WindowDoor Opening Factor or Crack Factor
    ZoneLevel,                !- Ventilation Control Mode
    ,                         !- Ventilation Control Zone Temperature Setpoint Schedule Name
    0,                        !- Minimum Venting Open Factor
    0,                        !- Indoor and Outdoor Temperature Difference Lower Limit For Maximum Venting Open Factor
    100,                      !- Indoor and Outdoor Temperature Difference Upper Limit for Minimum Venting Open Factor
    0,                        !- Indoor and Outdoor Enthalpy Difference Lower Limit For Maximum Venting Open Factor
    300000,                   !- Indoor and Outdoor Enthalpy Difference Upper Limit for Minimum Venting Open Factor