!- Darwin Line endings 

Version,
    22.2;                     !- Version Identifier

SimulationControl,
    No,                       !- Do Zone Sizing Calculation
    No,                       !- Do System Sizing Calculation
    No,                       !- Do Plant Sizing Calculation
    No,                       !- Run Simulation for Sizing Periods
    Yes,                      !- Run Simulation for Weather File Run Periods
    No,                       !- Do HVAC Sizing Simulation for Sizing Periods
    1;                        !- Maximum Number of HVAC Sizing Simulation Passes

Building,
    None,                     !- Name
    0,                        !- North Axis
    Suburbs,                  !- Terrain
    0.04,                     !- Loads Convergence Tolerance Value
    0.4,                      !- Temperature Convergence Tolerance Value
    FullInteriorAndExterior,    !- Solar Distribution
    25,                       !- Maximum Number of Warmup Days
    6;                        !- Minimum Number of Warmup Days

Timestep,
    4;                        !- Number of Timesteps per Hour

SITE:LOCATION,
    "PALO-ALTO-AP",           !- Name
    37.461,                   !- Latitude
    -122.115,                 !- Longitude
    -8,                       !- Time Zone
    1;                        !- Elevation

RUNPERIOD,
    Summer,                   !- Name
    7,                        !- Begin Month
    1,                        !- Begin Day of Month
    ,                         !- Begin Year
    7,                        !- End Month
    1,                        !- End Day of Month
    ,                         !- End Year
    ,                         !- Day of Week for Start Day
    Yes,                      !- Use Weather File Holidays and Special Days
    Yes,                      !- Use Weather File Daylight Saving Period
    No,                       !- Apply Weekend Holiday Rule
    Yes,                      !- Use Weather File Rain Indicators
    Yes,                      !- Use Weather File Snow Indicators
    No,                       !- Treat Weather as Actual
    Hour24;                   !- First Hour Interpolation Starting Values

GlobalGeometryRules,
    UpperLeftCorner,          !- Starting Vertex Position
    CounterClockWise,         !- Vertex Entry Direction
    World;                    !- Coordinate System

ZONE,
    Block `room1` Storey 0,    !- Name
    0,                        !- Direction of Relative North
    0,                        !- X Origin
    0,                        !- Y Origin
    0,                        !- Z Origin
    1,                        !- Type
    1,                        !- Multiplier
    autocalculate,            !- Ceiling Height
    autocalculate,            !- Volume
    autocalculate,            !- Floor Area
    ,                         !- Zone Inside Convection Algorithm
    ,                         !- Zone Outside Convection Algorithm
    Yes;                      !- Part of Total Floor Area

ZONE,
    Block `room2` Storey 0,    !- Name
    0,                        !- Direction of Relative North
    0,                        !- X Origin
    0,                        !- Y Origin
    0,                        !- Z Origin
    1,                        !- Type
    1,                        !- Multiplier
    autocalculate,            !- Ceiling Height
    autocalculate,            !- Volume
    autocalculate,            !- Floor Area
    ,                         !- Zone Inside Convection Algorithm
    ,                         !- Zone Outside Convection Algorithm
    Yes;                      !- Part of Total Floor Area

BUILDINGSURFACE:DETAILED,
    Block `room1` Storey 0 Wall 0001,    !- Name
    wall,                     !- Surface Type
    ,                         !- Construction Name
    Block `room1` Storey 0,    !- Zone Name
    ,                         !- Space Name
    outdoors,                 !- Outside Boundary Condition
    ,                         !- Outside Boundary Condition Object
    SunExposed,               !- Sun Exposure
    WindExposed,              !- Wind Exposure
    autocalculate,            !- View Factor to Ground
    autocalculate,            !- Number of Vertices
    1,                        !- Vertex 1 Xcoordinate
    1,                        !- Vertex 1 Ycoordinate
    3,                        !- Vertex 1 Zcoordinate
    1,                        !- Vertex 2 Xcoordinate
    1,                        !- Vertex 2 Ycoordinate
    0,                        !- Vertex 2 Zcoordinate
    0,                        !- Vertex 3 Xcoordinate
    1,                        !- Vertex 3 Ycoordinate
    0,                        !- Vertex 3 Zcoordinate
    0,                        !- Vertex 4 Xcoordinate
    1,                        !- Vertex 4 Ycoordinate
    3;                        !- Vertex 4 Zcoordinate

BUILDINGSURFACE:DETAILED,
    Block `room1` Storey 0 Wall 0002,    !- Name
    wall,                     !- Surface Type
    ,                         !- Construction Name
    Block `room1` Storey 0,    !- Zone Name
    ,                         !- Space Name
    outdoors,                 !- Outside Boundary Condition
    ,                         !- Outside Boundary Condition Object
    SunExposed,               !- Sun Exposure
    WindExposed,              !- Wind Exposure
    autocalculate,            !- View Factor to Ground
    autocalculate,            !- Number of Vertices
    0,                        !- Vertex 1 Xcoordinate
    1,                        !- Vertex 1 Ycoordinate
    3,                        !- Vertex 1 Zcoordinate
    0,                        !- Vertex 2 Xcoordinate
    1,                        !- Vertex 2 Ycoordinate
    0,                        !- Vertex 2 Zcoordinate
    0,                        !- Vertex 3 Xcoordinate
    0,                        !- Vertex 3 Ycoordinate
    0,                        !- Vertex 3 Zcoordinate
    0,                        !- Vertex 4 Xcoordinate
    0,                        !- Vertex 4 Ycoordinate
    3;                        !- Vertex 4 Zcoordinate

BUILDINGSURFACE:DETAILED,
    Block `room1` Storey 0 Wall 0003,    !- Name
    wall,                     !- Surface Type
    ,                         !- Construction Name
    Block `room1` Storey 0,    !- Zone Name
    ,                         !- Space Name
    outdoors,                 !- Outside Boundary Condition
    ,                         !- Outside Boundary Condition Object
    SunExposed,               !- Sun Exposure
    WindExposed,              !- Wind Exposure
    autocalculate,            !- View Factor to Ground
    autocalculate,            !- Number of Vertices
    0,                        !- Vertex 1 Xcoordinate
    0,                        !- Vertex 1 Ycoordinate
    3,                        !- Vertex 1 Zcoordinate
    0,                        !- Vertex 2 Xcoordinate
    0,                        !- Vertex 2 Ycoordinate
    0,                        !- Vertex 2 Zcoordinate
    1,                        !- Vertex 3 Xcoordinate
    0,                        !- Vertex 3 Ycoordinate
    0,                        !- Vertex 3 Zcoordinate
    1,                        !- Vertex 4 Xcoordinate
    0,                        !- Vertex 4 Ycoordinate
    3;                        !- Vertex 4 Zcoordinate

BUILDINGSURFACE:DETAILED,
    Block `room1` Storey 0 Floor 0001,    !- Name
    floor,                    !- Surface Type
    ,                         !- Construction Name
    Block `room1` Storey 0,    !- Zone Name
    ,                         !- Space Name
    ground,                   !- Outside Boundary Condition
    ,                         !- Outside Boundary Condition Object
    NoSun,                    !- Sun Exposure
    NoWind,                   !- Wind Exposure
    autocalculate,            !- View Factor to Ground
    autocalculate,            !- Number of Vertices
    1,                        !- Vertex 1 Xcoordinate
    1,                        !- Vertex 1 Ycoordinate
    0,                        !- Vertex 1 Zcoordinate
    1,                        !- Vertex 2 Xcoordinate
    0,                        !- Vertex 2 Ycoordinate
    0,                        !- Vertex 2 Zcoordinate
    0,                        !- Vertex 3 Xcoordinate
    0,                        !- Vertex 3 Ycoordinate
    0,                        !- Vertex 3 Zcoordinate
    0,                        !- Vertex 4 Xcoordinate
    1,                        !- Vertex 4 Ycoordinate
    0;                        !- Vertex 4 Zcoordinate

BUILDINGSURFACE:DETAILED,
    Block `room1` Storey 0 Roof 0001,    !- Name
    roof,                     !- Surface Type
    ,                         !- Construction Name
    Block `room1` Storey 0,    !- Zone Name
    ,                         !- Space Name
    outdoors,                 !- Outside Boundary Condition
    ,                         !- Outside Boundary Condition Object
    SunExposed,               !- Sun Exposure
    WindExposed,              !- Wind Exposure
    autocalculate,            !- View Factor to Ground
    autocalculate,            !- Number of Vertices
    1,                        !- Vertex 1 Xcoordinate
    0,                        !- Vertex 1 Ycoordinate
    3,                        !- Vertex 1 Zcoordinate
    1,                        !- Vertex 2 Xcoordinate
    1,                        !- Vertex 2 Ycoordinate
    3,                        !- Vertex 2 Zcoordinate
    0,                        !- Vertex 3 Xcoordinate
    1,                        !- Vertex 3 Ycoordinate
    3,                        !- Vertex 3 Zcoordinate
    0,                        !- Vertex 4 Xcoordinate
    0,                        !- Vertex 4 Ycoordinate
    3;                        !- Vertex 4 Zcoordinate

BUILDINGSURFACE:DETAILED,
    Block `room2` Storey 0 Wall 0001,    !- Name
    wall,                     !- Surface Type
    ,                         !- Construction Name
    Block `room2` Storey 0,    !- Zone Name
    ,                         !- Space Name
    outdoors,                 !- Outside Boundary Condition
    ,                         !- Outside Boundary Condition Object
    SunExposed,               !- Sun Exposure
    WindExposed,              !- Wind Exposure
    autocalculate,            !- View Factor to Ground
    autocalculate,            !- Number of Vertices
    2,                        !- Vertex 1 Xcoordinate
    1,                        !- Vertex 1 Ycoordinate
    3,                        !- Vertex 1 Zcoordinate
    2,                        !- Vertex 2 Xcoordinate
    1,                        !- Vertex 2 Ycoordinate
    0,                        !- Vertex 2 Zcoordinate
    1,                        !- Vertex 3 Xcoordinate
    1,                        !- Vertex 3 Ycoordinate
    0,                        !- Vertex 3 Zcoordinate
    1,                        !- Vertex 4 Xcoordinate
    1,                        !- Vertex 4 Ycoordinate
    3;                        !- Vertex 4 Zcoordinate

BUILDINGSURFACE:DETAILED,
    Block `room2` Storey 0 Wall 0003,    !- Name
    wall,                     !- Surface Type
    ,                         !- Construction Name
    Block `room2` Storey 0,    !- Zone Name
    ,                         !- Space Name
    outdoors,                 !- Outside Boundary Condition
    ,                         !- Outside Boundary Condition Object
    SunExposed,               !- Sun Exposure
    WindExposed,              !- Wind Exposure
    autocalculate,            !- View Factor to Ground
    autocalculate,            !- Number of Vertices
    1,                        !- Vertex 1 Xcoordinate
    0,                        !- Vertex 1 Ycoordinate
    3,                        !- Vertex 1 Zcoordinate
    1,                        !- Vertex 2 Xcoordinate
    0,                        !- Vertex 2 Ycoordinate
    0,                        !- Vertex 2 Zcoordinate
    2,                        !- Vertex 3 Xcoordinate
    0,                        !- Vertex 3 Ycoordinate
    0,                        !- Vertex 3 Zcoordinate
    2,                        !- Vertex 4 Xcoordinate
    0,                        !- Vertex 4 Ycoordinate
    3;                        !- Vertex 4 Zcoordinate

BUILDINGSURFACE:DETAILED,
    Block `room2` Storey 0 Wall 0004,    !- Name
    wall,                     !- Surface Type
    ,                         !- Construction Name
    Block `room2` Storey 0,    !- Zone Name
    ,                         !- Space Name
    outdoors,                 !- Outside Boundary Condition
    ,                         !- Outside Boundary Condition Object
    SunExposed,               !- Sun Exposure
    WindExposed,              !- Wind Exposure
    autocalculate,            !- View Factor to Ground
    autocalculate,            !- Number of Vertices
    2,                        !- Vertex 1 Xcoordinate
    0,                        !- Vertex 1 Ycoordinate
    3,                        !- Vertex 1 Zcoordinate
    2,                        !- Vertex 2 Xcoordinate
    0,                        !- Vertex 2 Ycoordinate
    0,                        !- Vertex 2 Zcoordinate
    2,                        !- Vertex 3 Xcoordinate
    1,                        !- Vertex 3 Ycoordinate
    0,                        !- Vertex 3 Zcoordinate
    2,                        !- Vertex 4 Xcoordinate
    1,                        !- Vertex 4 Ycoordinate
    3;                        !- Vertex 4 Zcoordinate

BUILDINGSURFACE:DETAILED,
    Block `room2` Storey 0 Floor 0001,    !- Name
    floor,                    !- Surface Type
    ,                         !- Construction Name
    Block `room2` Storey 0,    !- Zone Name
    ,                         !- Space Name
    ground,                   !- Outside Boundary Condition
    ,                         !- Outside Boundary Condition Object
    NoSun,                    !- Sun Exposure
    NoWind,                   !- Wind Exposure
    autocalculate,            !- View Factor to Ground
    autocalculate,            !- Number of Vertices
    2,                        !- Vertex 1 Xcoordinate
    1,                        !- Vertex 1 Ycoordinate
    0,                        !- Vertex 1 Zcoordinate
    2,                        !- Vertex 2 Xcoordinate
    0,                        !- Vertex 2 Ycoordinate
    0,                        !- Vertex 2 Zcoordinate
    1,                        !- Vertex 3 Xcoordinate
    0,                        !- Vertex 3 Ycoordinate
    0,                        !- Vertex 3 Zcoordinate
    1,                        !- Vertex 4 Xcoordinate
    1,                        !- Vertex 4 Ycoordinate
    0;                        !- Vertex 4 Zcoordinate

BUILDINGSURFACE:DETAILED,
    Block `room2` Storey 0 Roof 0001,    !- Name
    roof,                     !- Surface Type
    ,                         !- Construction Name
    Block `room2` Storey 0,    !- Zone Name
    ,                         !- Space Name
    outdoors,                 !- Outside Boundary Condition
    ,                         !- Outside Boundary Condition Object
    SunExposed,               !- Sun Exposure
    WindExposed,              !- Wind Exposure
    autocalculate,            !- View Factor to Ground
    autocalculate,            !- Number of Vertices
    2,                        !- Vertex 1 Xcoordinate
    0,                        !- Vertex 1 Ycoordinate
    3,                        !- Vertex 1 Zcoordinate
    2,                        !- Vertex 2 Xcoordinate
    1,                        !- Vertex 2 Ycoordinate
    3,                        !- Vertex 2 Zcoordinate
    1,                        !- Vertex 3 Xcoordinate
    1,                        !- Vertex 3 Ycoordinate
    3,                        !- Vertex 3 Zcoordinate
    1,                        !- Vertex 4 Xcoordinate
    0,                        !- Vertex 4 Ycoordinate
    3;                        !- Vertex 4 Zcoordinate

BUILDINGSURFACE:DETAILED,
    Block `room1` Storey 0 Wall 0004_1,    !- Name
    wall,                     !- Surface Type
    ,                         !- Construction Name
    Block `room1` Storey 0,    !- Zone Name
    ,                         !- Space Name
    surface,                  !- Outside Boundary Condition
    Block `room2` Storey 0 Wall 0002_1,    !- Outside Boundary Condition Object
    NoSun,                    !- Sun Exposure
    NoWind,                   !- Wind Exposure
    autocalculate,            !- View Factor to Ground
    autocalculate,            !- Number of Vertices
    1,                        !- Vertex 1 Xcoordinate
    0,                        !- Vertex 1 Ycoordinate
    3,                        !- Vertex 1 Zcoordinate
    1,                        !- Vertex 2 Xcoordinate
    0,                        !- Vertex 2 Ycoordinate
    0,                        !- Vertex 2 Zcoordinate
    1,                        !- Vertex 3 Xcoordinate
    1,                        !- Vertex 3 Ycoordinate
    0,                        !- Vertex 3 Zcoordinate
    1,                        !- Vertex 4 Xcoordinate
    1,                        !- Vertex 4 Ycoordinate
    3;                        !- Vertex 4 Zcoordinate

BUILDINGSURFACE:DETAILED,
    Block `room2` Storey 0 Wall 0002_1,    !- Name
    wall,                     !- Surface Type
    ,                         !- Construction Name
    Block `room2` Storey 0,    !- Zone Name
    ,                         !- Space Name
    surface,                  !- Outside Boundary Condition
    Block `room1` Storey 0 Wall 0004_1,    !- Outside Boundary Condition Object
    NoSun,                    !- Sun Exposure
    NoWind,                   !- Wind Exposure
    autocalculate,            !- View Factor to Ground
    autocalculate,            !- Number of Vertices
    1,                        !- Vertex 1 Xcoordinate
    1,                        !- Vertex 1 Ycoordinate
    3,                        !- Vertex 1 Zcoordinate
    1,                        !- Vertex 2 Xcoordinate
    1,                        !- Vertex 2 Ycoordinate
    0,                        !- Vertex 2 Zcoordinate
    1,                        !- Vertex 3 Xcoordinate
    0,                        !- Vertex 3 Ycoordinate
    0,                        !- Vertex 3 Zcoordinate
    1,                        !- Vertex 4 Xcoordinate
    0,                        !- Vertex 4 Ycoordinate
    3;                        !- Vertex 4 Zcoordinate

WINDOW,
    Window__Block `room1` Storey 0 Wall 0002,    !- Name
    ,                         !- Construction Name
    Block `room1` Storey 0 Wall 0002,    !- Building Surface Name
    ,                         !- Frame and Divider Name
    1.0,                      !- Multiplier
    0.2,                      !- Starting X Coordinate
    0.5,                      !- Starting Z Coordinate
    0.6,                      !- Length
    2;                        !- Height

WINDOW,
    Window__Block `room1` Storey 0 Wall 0001,    !- Name
    ,                         !- Construction Name
    Block `room1` Storey 0 Wall 0001,    !- Building Surface Name
    ,                         !- Frame and Divider Name
    1.0,                      !- Multiplier
    0.2,                      !- Starting X Coordinate
    0.5,                      !- Starting Z Coordinate
    0.6,                      !- Length
    2;                        !- Height

WINDOW,
    Window__Block `room2` Storey 0 Wall 0003,    !- Name
    ,                         !- Construction Name
    Block `room2` Storey 0 Wall 0003,    !- Building Surface Name
    ,                         !- Frame and Divider Name
    1.0,                      !- Multiplier
    2.000000e-01,             !- Starting X Coordinate
    0.5,                      !- Starting Z Coordinate
    0.6,                      !- Length
    2;                        !- Height

DOOR:INTERZONE,
    Door__Block `room1` Storey 0 Wall 0004_1,    !- Name
    ,                         !- Construction Name
    Block `room1` Storey 0 Wall 0004_1,    !- Building Surface Name
    Door__Block `room2` Storey 0 Wall 0002_1,    !- Outside Boundary Condition Object
    1.0,                      !- Multiplier
    0.25,                     !- Starting X Coordinate
    0.5,                      !- Starting Z Coordinate
    0.5,                      !- Length
    2;                        !- Height

DOOR:INTERZONE,
    Door__Block `room2` Storey 0 Wall 0002_1,    !- Name
    ,                         !- Construction Name
    Block `room2` Storey 0 Wall 0002_1,    !- Building Surface Name
    Door__Block `room1` Storey 0 Wall 0004_1,    !- Outside Boundary Condition Object
    1.0,                      !- Multiplier
    0.25,                     !- Starting X Coordinate
    0.5,                      !- Starting Z Coordinate
    0.5,                      !- Length
    2;                        !- Height

Output:VariableDictionary,
    Regular;                  !- Key Field

Output:Table:SummaryReports,
    AllSummary;               !- Report 1 Name

OutputControl:Table:Style,
    HTML;                     !- Column Separator

Output:Variable,
    *,                        !- Key Value
    Site Outdoor Air Drybulb Temperature,    !- Variable Name
    Timestep;                 !- Reporting Frequency

Output:Variable,
    *,                        !- Key Value
    Site Outdoor Air Wetbulb Temperature,    !- Variable Name
    Timestep;                 !- Reporting Frequency

Output:Variable,
    *,                        !- Key Value
    Site Outdoor Air Dewpoint Temperature,    !- Variable Name
    Timestep;                 !- Reporting Frequency

Output:Variable,
    *,                        !- Key Value
    Site Solar Azimuth Angle,    !- Variable Name
    Timestep;                 !- Reporting Frequency

Output:Variable,
    *,                        !- Key Value
    Site Solar Altitude Angle,    !- Variable Name
    Timestep;                 !- Reporting Frequency

Output:Variable,
    *,                        !- Key Value
    Site Direct Solar Radiation Rate per Area,    !- Variable Name
    Timestep;                 !- Reporting Frequency

Output:Variable,
    *,                        !- Key Value
    Site Diffuse Solar Radiation Rate per Area,    !- Variable Name
    Timestep;                 !- Reporting Frequency

OUTPUT:SQLITE,
    Simple,                   !- Option Type
    UseOutputControlTableStyle;    !- Unit Conversion for Tabular Data